Circuit: * C:\Users\akka0\Desktop\HGU\Draft1.asc

Ignoring BSIM parameter XL
Ignoring BSIM parameter XW
Ignoring BSIM parameter XL
Ignoring BSIM parameter XW
WARNING: Node X2:N002 is floating.
WARNING: Node X2:N001 is floating.

WARNING: Less than two connections to node X2:N002.  This node is used by M:X2:1.
WARNING: Less than two connections to node X2:N001.  This node is used by M:X2:2.
Warning: Pd = 0 is less than W.
Warning: Ps = 0 is less than W.
Warning: Pd = 0 is less than W.
Warning: Ps = 0 is less than W.
Direct Newton iteration for .op point succeeded.

Date: Sat Jun 25 00:15:26 2022
Total elapsed time: 0.063 seconds.

tnom = 27
temp = 27
method = modified trap
totiter = 2161
traniter = 2135
tranpoints = 1051
accept = 1051
rejected = 0
matrix size = 7
fillins = 2
solver = Normal
Matrix Compiler1:      21 opcodes  0.2/[0.0]/0.1
Matrix Compiler2: off  [0.1]/0.1/0.1

