Circuit: * C:\Users\user\Desktop\Ltspice\real_10Bit_Logic.ASC

